*Heading
** Job name: job-cup-drawing-4 Model name: Model-1
** Generated by: Abaqus/CAE 2018
*Preprint, echo=NO, model=NO, history=NO, contact=NO
** ----------------------------------------------------------------
** 
** PART INSTANCE: blank-1-1
** 
*System
          0.,          0.,23.0000000238419,          1.,          0.,23.0000000238419
          0.,6.12323399573677e-17,22.0000000238419
*Node
      1,   31.4500008,          20.,           0.
      2,   26.4500008,          15.,           0.
      3,   21.4500008,           0.,           0.
      4,   26.4500008,           5.,           0.
      5,   57.2000008,          20.,           0.
      6,           0.,           0.,           0.
      7,   31.3866806,          20.,   1.99468231
      8,   31.1969795,          20.,   3.98133278
      9,   30.8816566,          20.,    5.9519515
     10,   30.4419861,          20.,   7.89860439
     11,   29.8797359,          20.,   9.81345177
     12,   29.1971722,          20.,   11.6887846
     13,   28.3970394,          20.,   13.5170498
     14,    27.482563,          20.,   15.2908869
     15,   26.4574242,          20.,   17.0031528
     16,   25.3257504,          20.,   18.6469536
     17,   24.0920982,          20.,   20.2156696
     18,   22.7614346,          20.,   21.7029858
     19,   21.3391209,          20.,   23.1029091
     20,   19.8308811,          20.,   24.4098072
** ... 4379 like lines cut
*Element, type=S4R
  1,   1, 104, 604, 702
  2, 104, 103, 605, 604
  3, 103, 102, 606, 605
  4, 102, 101, 607, 606
  5, 101, 100, 608, 607
  6, 100,  99, 609, 608
  7,  99,  98, 610, 609
  8,  98,  97, 611, 610
  9,  97,  96, 612, 611
 10,  96,  95, 613, 612
 11,  95,  94, 614, 613
 12,  94,  93, 615, 614
 13,  93,  92, 616, 615
 14,  92,  91, 617, 616
 15,  91,  90, 618, 617
 16,  90,  89, 619, 618
 17,  89,  88, 620, 619
 18,  88,  87, 621, 620
 19,  87,  86, 622, 621
 20,  86,  85, 623, 622
** ... 4256 like lines cut
*Element, type=S3
1387, 3216, 3001, 3057
1388, 3173, 3109, 3134
1389, 3472, 2889, 2805
1390, 2596, 1840, 2514
1391, 2891, 2890, 3083
1392, 2839, 2691, 2780
1393, 3365, 3302, 3309
1394, 3033, 2875, 2983
1395, 3423, 2888, 1963
1396, 2731, 2509, 1735
1397, 3473, 2885, 2803
1398, 2748, 1775, 2709
1399, 2753, 1939, 2713
1400, 2896, 1704, 2465
1401, 2854, 2834, 1966
1402, 3035, 1849, 2965
1403, 3481, 2984, 2881
1404, 2899, 3025, 2941
1405, 3664, 2978, 2706
1406, 3072, 2944, 1980
** ... 44 like lines cut
*Nset, nset=blank-1-1_set-blank, generate
    1,  4399,     1
*Elset, elset=blank-1-1_set-blank, generate
    1,  4340,     1
** Section: section-s4
*Shell Section, elset=blank-1-1_set-blank, material=steel-dp60
4., 5
** ----------------------------------------------------------------
** 
** PART INSTANCE: punch-1-1
** 
*System
          0.,          0.,-2.99999997615814,          1.,          0.,-2.99999997615814
          0.,6.12323399573677e-17,-3.99999997615814
*Node
   4400,          21.,           0.,           0.
   4401,          26.,           5.,           0.
   4402,          26.,          30.,           0.
   4403,           0.,           0.,           0.
   4404,   20.9383812,           0.,   1.60753429
   4405,   20.7538891,           0.,   3.20563507
   4406,   20.4476032,           0.,   4.78492355
   4407,   20.0213242,           0.,   6.33613253
   4408,   19.4775524,           0.,   7.85015869
   4409,   18.8194771,           0.,   9.31811619
   4410,   18.0509624,           0.,   10.7313919
   4411,   17.1765175,           0.,   12.0816917
   4412,    16.201273,           0.,   13.3610916
   4413,   15.1309538,           0.,   14.5620823
   4414,   13.9718399,           0.,    15.677618
   4415,   12.7307339,           0.,   16.7011509
   4416,   11.4149189,           0.,   17.6266747
   4417,   10.0321159,           0.,   18.4487572
   4418,    8.5904417,           0.,   19.1625767
   4419,   7.09835434,           0.,   19.7639408
** ... 2019 like lines cut
*Element, type=S4R
4341, 4400, 4484, 4669, 4750
4342, 4484, 4483, 4670, 4669
4343, 4483, 4482, 4671, 4670
4344, 4482, 4481, 4672, 4671
4345, 4481, 4480, 4673, 4672
4346, 4480, 4479, 4674, 4673
4347, 4479, 4478, 4675, 4674
4348, 4478, 4477, 4676, 4675
4349, 4477, 4476, 4677, 4676
4350, 4476, 4475, 4678, 4677
4351, 4475, 4474, 4679, 4678
4352, 4474, 4473, 4680, 4679
4353, 4473, 4472, 4681, 4680
4354, 4472, 4471, 4682, 4681
4355, 4471, 4470, 4683, 4682
4356, 4470, 4469, 4684, 4683
4357, 4469, 4468, 4685, 4684
4358, 4468, 4467, 4686, 4685
4359, 4467, 4466, 4687, 4686
4360, 4466, 4465, 4688, 4687
** ... 1969 like lines cut
*Element, type=S3
5735, 6278, 6244, 6277
5736, 6196, 6146, 6132
5737, 6323, 6248, 6321
5738, 6394, 6375, 6363
5739, 6194, 6252, 6217
5740, 6242, 6189, 6201
5741, 6434, 6195, 6209
5742, 6212, 6289, 6215
5743, 6389, 6354, 6383
5744, 6315, 6276, 6269
5745, 6382, 6203, 6182
5746, 6424, 6373, 6185
5747, 6406, 6302, 6314
5748, 6422, 6191, 6204
5749, 6218, 6433, 6198
5750, 6417, 6435, 6222
*Nset, nset=punch-1-1_set-punch, generate
 4400,  6438,     1
*Elset, elset=punch-1-1_set-punch, generate
 4341,  6345,     1
** Section: section-s4
*Shell Section, elset=punch-1-1_set-punch, material=steel-dp60
4., 5
** ----------------------------------------------------------------
** 
** PART INSTANCE: sample-2-1
** 
*System
          0.,          0.,-0.999999976158144,          1.,          0.,-0.999999976158144
          0.,6.12323399573677e-17,-1.99999997615814
*Node
   6439,          31.,           0.,           0.
   6440,          29.,           0.,           0.
   6441,          27.,           0.,           0.
   6442,          25.,           0.,           0.
   6443,          23.,           0.,           0.
   6444,          21.,           0.,           0.
   6445,          19.,           0.,           0.
   6446,          17.,           0.,           0.
   6447,          14.,           0.,           0.
   6448,          12.,           0.,           0.
   6449,          10.,           0.,           0.
   6450,           8.,           0.,           0.
   6451,           6.,           0.,           0.
   6452,           4.,           0.,           0.
   6453,           2.,           0.,           0.
   6454,          33.,           0.,           0.
   6455,           0.,           0.,           0.
   6456,   32.8632774,           0.,   3.00085044
   6457,   32.4542351,           0.,   5.97683477
   6458,   31.7762699,           0.,   8.90329361
** ... 4227 like lines cut
*Element, type=S3
6346, 10161,  8287,  7935
6347, 10328,  8192,  8505
6348,  8812,  8721,  6978
6349, 10301,  6980,  8761
6350, 10678,  9841,  9772
6351, 10217,  9059,  8882
6352, 10514,  9071,  6850
6353,  9869,  9810,  6746
6354,  8708,  8805,  7074
6355, 10391,  9429,  6934
6356, 10209,  7016,  8216
6357,  8786,  8721,  6990
6358,  9697,  9571,  9665
6359,  9793,  9801,  7108
6360,  9840,  9759,  9807
6361,  9496,  9436,  7176
6362, 10620,  8863,  8919
6363,  7787,  6897,  7812
6364, 10212,  7898,  7927
6365,  8028,  7932,  6623
** ... 97 like lines cut
*Element, type=S4R
 6463,  7257,  7524,  7410,  6454
 6464,  7948,  7900,  6590,  8042
 6465,  8633, 10152,  8766,  8981
 6466,  8372,  6587,  8769,  8400
 6467,  8213,  8126,  8039,  6949
 6468,  6586,  7918,  7943,  8039
 6469,  8034,  7942,  8120, 10165
 6470,  8349,  6947, 10163,  8207
 6471,  8496,  8302,  8576,  6583
 6472,  8209,  7939,  8122,  6945
 6473,  6581,  7919,  7946,  8035
 6474,  8040,  6943,  8124,  7946
 6475,  8279, 10110,  8392,  8717
 6476,  8454,  9165,  8331,  6940
 6477,  8234,  8348,  8019,  8165
 6478,  6576,  7688,  7772,  7977
 6479,  7827,  6938,  7874,  7772
 6480,  8099,  8058,  6574,  8190
 6481,  8378,  8992,  8376,  8323
 6482,  9066,  6572, 10267,  8990
** ... 4064 like lines cut
*Nset, nset=sample-2-1_sample-2, generate
 6439, 10685,     1
*Elset, elset=sample-2-1_sample-2, generate
 6346, 10546,     1
** Section: section-3
*Shell Section, elset=sample-2-1_sample-2, material=aluminum-1
1.6, 5
*System
*Nset, nset=Set-1, generate
    1,  4399,     1
*Elset, elset=Set-1, generate
    1,  4340,     1
*Nset, nset=Set-2, generate
 4400,  6438,     1
*Elset, elset=Set-2, generate
 4341,  6345,     1
*Elset, elset=_m_Surf-1_SPOS, generate
 5735,  6345,     1
*Surface, type=ELEMENT, name=m_Surf-1
_m_Surf-1_SPOS, SPOS
*Elset, elset=_m_Surf-blank-1_SPOS, generate
    1,  4340,     1
*Surface, type=ELEMENT, name=m_Surf-blank-1
_m_Surf-blank-1_SPOS, SPOS
*Elset, elset=_m_Surf-blank-bottom-ring_SPOS, generate
 397,  891,    1
*Surface, type=ELEMENT, name=m_Surf-blank-bottom-ring
_m_Surf-blank-bottom-ring_SPOS, SPOS
*Elset, elset=_m_Surf-blank-bottom-surf_SPOS, generate
 3544,  4340,     1
*Surface, type=ELEMENT, name=m_Surf-blank-bottom-surf
_m_Surf-blank-bottom-surf_SPOS, SPOS
*Elset, elset=_m_Surf-blank-cylinder_SPOS, generate
  892,  1386,     1
*Surface, type=ELEMENT, name=m_Surf-blank-cylinder
_m_Surf-blank-cylinder_SPOS, SPOS
*Elset, elset=_m_Surf-blank-neck_SNEG, generate
   1,  396,    1
*Surface, type=ELEMENT, name=m_Surf-blank-neck
_m_Surf-blank-neck_SNEG, SNEG
*Elset, elset=_m_Surf-blank-ring_SPOS, generate
 1387,  3543,     1
*Surface, type=ELEMENT, name=m_Surf-blank-ring
_m_Surf-blank-ring_SPOS, SPOS
*Elset, elset=_m_Surf-punch-1_SNEG, generate
 4341,  6345,     1
*Surface, type=ELEMENT, name=m_Surf-punch-1
_m_Surf-punch-1_SNEG, SNEG
*Elset, elset=_m_Surf-punch-1-cylinder_SNEG, generate
 4669,  5734,     1
*Surface, type=ELEMENT, name=m_Surf-punch-1-cylinder
_m_Surf-punch-1-cylinder_SNEG, SNEG
*Elset, elset=_m_Surf-punch-1-ring_SNEG, generate
4341, 4668,    1
*Surface, type=ELEMENT, name=m_Surf-punch-1-ring
_m_Surf-punch-1-ring_SNEG, SNEG
*Elset, elset=_s_Surf-3_SNEG, generate
    1,  4340,     1
*Surface, type=ELEMENT, name=s_Surf-3
_s_Surf-3_SNEG, SNEG
*Elset, elset=_s_Surf-sample-2_SNEG, generate
 6346, 10546,     1
*Surface, type=ELEMENT, name=s_Surf-sample-2
_s_Surf-sample-2_SNEG, SNEG
*Elset, elset=_s_Surf-sample-2-z_SPOS, generate
 6346, 10546,     1
*Surface, type=ELEMENT, name=s_Surf-sample-2-z
_s_Surf-sample-2-z_SPOS, SPOS
** 
** MATERIALS
** 
*Material, name=aluminum-1
*Elastic
69000., 0.27
*Material, name=steel-dp60
*Elastic
213000., 0.25
*Material, name=steel-twip
*Elastic
165000., 0.35
** 
** INTERACTION PROPERTIES
** 
*Surface Interaction, name=IntProp-contact-1
1.,
*Friction, slip tolerance=0.005
 0.04,
*Surface Behavior, pressure-overclosure=HARD
** 
** BOUNDARY CONDITIONS
** 
** Name: fixed-blank Type: Symmetry/Antisymmetry/Encastre
*Boundary
Set-1, ENCASTRE
** Name: fixed-sample Type: Displacement/Rotation
*Boundary
sample-2-1_sample-2, 1, 1
sample-2-1_sample-2, 2, 2
sample-2-1_sample-2, 6, 6
** 
** INTERACTIONS
** 
** Interaction: contact-1
*Contact Pair, interaction=IntProp-contact-1, type=SURFACE TO SURFACE
s_Surf-sample-2, m_Surf-1
** Interaction: contact-2
*Contact Pair, interaction=IntProp-contact-1, type=SURFACE TO SURFACE
s_Surf-sample-2-z, m_Surf-blank-1
** ----------------------------------------------------------------
** 
** STEP: punching
** 
*Step, name=punching, nlgeom=YES, inc=10000
*Static
0.01, 1., 1e-10, 0.1
** 
** BOUNDARY CONDITIONS
** 
** Name: moving-punch Type: Velocity/Angular velocity
*Boundary, type=VELOCITY
Set-2, 3, 3, 10.
** 
** OUTPUT REQUESTS
** 
*Restart, write, frequency=0
** 
** FIELD OUTPUT: F-Output-1
** 
*Output, field
*Node Output
RF, RT, U
*Element Output, directions=YES
E, LE, S
** 
** HISTORY OUTPUT: H-Output-1
** 
*Output, history
*Energy Output
ALLEE, 
*End Step
