*Heading
 stauchen
** Job name: Job_sx-px-J2 Model name: Model-1
** Generated by: Abaqus/CAE 2018
*Preprint, echo=NO, model=NO, history=NO, contact=NO
** ----------------------------------------------------------------
** 
** PART INSTANCE: Part-sx
** 
*System
          0.,          0.,       15.04,          1.,          0.,       15.04
*Node
      1,   4.89073801,   1.03955841,           0.
      2,   4.56772709,    2.0336833,           0.
      3,   3.34565306,   3.71572423,           0.
      4,          2.5,   4.33012724,           0.
      5,   1.54508495,    4.7552824,           0.
      6,  0.522642314,   4.97260952,           0.
      7, -0.522642314,   4.97260952,           0.
      8,         -2.5,   4.33012724,           0.
      9,  -3.34565306,   3.71572423,           0.
     10,  -4.04508495,   2.93892622,           0.
     11,  -4.56772709,    2.0336833,           0.
     12,  -4.89073801,   1.03955841,           0.
     13,  -4.89073801,  -1.03955841,           0.
     14,  -4.56772709,   -2.0336833,           0.
     15,  -4.04508495,  -2.93892622,           0.
     16,  -3.34565306,  -3.71572423,           0.
     17,         -2.5,  -4.33012724,           0.
     18, -0.522642314,  -4.97260952,           0.
     19,  0.522642314,  -4.97260952,           0.
     20,   1.54508495,   -4.7552824,           0.
** ... 1735 like lines cut
*Element, type=C3D8S
   1,  216,  178,  179,  228,   99,   61,   62,  111
   2,  161,  146,  134,  148,   44,   29,   17,   31
   3,  148,  134,  133,  170,   31,   17,   16,   53
   4,  154,  138,  137,  172,   37,   21,   20,   55
   5,  173,  221,  220,  188,   56,  104,  103,   71
   6,  149,  220,  145,  129,   32,  103,   28,   12
   7,  150,  174,  126,  125,   33,   57,    9,    8
   8,  180,  176,  174,  223,   63,   59,   57,  106
   9,  151,  219,  123,  122,   34,  102,    6,    5
  10,  218,  156,  120,  143,  101,   39,    3,   26
  11,  190,  231,  193,  211,   73,  114,   76,   94
  12,  139,  153,  162,  147,   22,   36,   45,   30
  13,  165,  162,  153,  210,   48,   45,   36,   93
  14,  138,  154,  153,  139,   21,   37,   36,   22
  15,  164,  157,  158,  163,   47,   40,   41,   46
  16,  158,  157,  118,  142,   41,   40,    1,   25
  17,  197,  187,  180,  205,   80,   70,   63,   88
  18,  152,  141,  140,  171,   35,   24,   23,   54
  19,  181,  224,  198,  223,   64,  107,   81,  106
  20,  195,  189,  190,  211,   78,   72,   73,   94
** ... 1394 like lines cut
*Nset, nset=Part-sx__PickedSet5, generate
    1,  1755,     1
*Elset, elset=Part-sx__PickedSet5, generate
    1,  1414,     1
** Section: Section-sx
*Solid Section, elset=Part-sx__PickedSet5, material=Material-sx
,
** ----------------------------------------------------------------
** 
** PART INSTANCE: Part-px
** 
*System
*Node
   1756,   4.89073801,   1.03955841,           0.
   1757,   4.56772709,    2.0336833,           0.
   1758,   3.34565306,   3.71572423,           0.
   1759,          2.5,   4.33012724,           0.
   1760,   1.54508495,    4.7552824,           0.
   1761,  0.522642314,   4.97260952,           0.
   1762, -0.522642314,   4.97260952,           0.
   1763,         -2.5,   4.33012724,           0.
   1764,  -3.34565306,   3.71572423,           0.
   1765,  -4.04508495,   2.93892622,           0.
   1766,  -4.56772709,    2.0336833,           0.
   1767,  -4.89073801,   1.03955841,           0.
   1768,  -4.89073801,  -1.03955841,           0.
   1769,  -4.56772709,   -2.0336833,           0.
   1770,  -4.04508495,  -2.93892622,           0.
   1771,  -3.34565306,  -3.71572423,           0.
   1772,         -2.5,  -4.33012724,           0.
   1773, -0.522642314,  -4.97260952,           0.
   1774,  0.522642314,  -4.97260952,           0.
   1775,   1.54508495,   -4.7552824,           0.
** ... 1735 like lines cut
*Element, type=C3D8S
1415, 1971, 1933, 1934, 1983, 1854, 1816, 1817, 1866
1416, 1916, 1901, 1889, 1903, 1799, 1784, 1772, 1786
1417, 1903, 1889, 1888, 1925, 1786, 1772, 1771, 1808
1418, 1909, 1893, 1892, 1927, 1792, 1776, 1775, 1810
1419, 1928, 1976, 1975, 1943, 1811, 1859, 1858, 1826
1420, 1904, 1975, 1900, 1884, 1787, 1858, 1783, 1767
1421, 1905, 1929, 1881, 1880, 1788, 1812, 1764, 1763
1422, 1935, 1931, 1929, 1978, 1818, 1814, 1812, 1861
1423, 1906, 1974, 1878, 1877, 1789, 1857, 1761, 1760
1424, 1973, 1911, 1875, 1898, 1856, 1794, 1758, 1781
1425, 1945, 1986, 1948, 1966, 1828, 1869, 1831, 1849
1426, 1894, 1908, 1917, 1902, 1777, 1791, 1800, 1785
1427, 1920, 1917, 1908, 1965, 1803, 1800, 1791, 1848
1428, 1893, 1909, 1908, 1894, 1776, 1792, 1791, 1777
1429, 1919, 1912, 1913, 1918, 1802, 1795, 1796, 1801
1430, 1913, 1912, 1873, 1897, 1796, 1795, 1756, 1780
1431, 1952, 1942, 1935, 1960, 1835, 1825, 1818, 1843
1432, 1907, 1896, 1895, 1926, 1790, 1779, 1778, 1809
1433, 1936, 1979, 1953, 1978, 1819, 1862, 1836, 1861
1434, 1950, 1944, 1945, 1966, 1833, 1827, 1828, 1849
** ... 1394 like lines cut
*Nset, nset=Part-px__PickedSet4, generate
 1756,  3510,     1
*Elset, elset=Part-px__PickedSet4, generate
 1415,  2828,     1
** Section: Section-px
*Solid Section, elset=Part-px__PickedSet4, material=Material-px
,
*System
*Nset, nset=Set-3, generate
 1639,  1755,     1
*Elset, elset=Set-3, generate
 1314,  1414,     1
*Nset, nset=Set-4, generate
1756, 1872,    1
*Elset, elset=Set-4, generate
1415, 1515,    1
*Nset, nset=Set-5, generate
   1,  117,    1
*Elset, elset=Set-5, generate
   1,  101,    1
*Nset, nset=Set-6, generate
 3394,  3510,     1
*Elset, elset=Set-6, generate
 2728,  2828,     1
*Elset, elset=_Surf-px_S1, generate
 2728,  2828,     1
*Surface, type=ELEMENT, name=Surf-px
_Surf-px_S1, S1
*Elset, elset=_Surf-sx_S2, generate
   1,  101,    1
*Surface, type=ELEMENT, name=Surf-sx
_Surf-sx_S2, S2
** 
** MATERIALS
** 
*Material, name=Material-px
*Depvar
     49,
*Elastic
2., 0.3
*Plastic
 0.003,   0.
 0.005, 0.25
*Material, name=Material-sx
*Depvar
     49,
*Elastic
1., 0.3
*Plastic
 0.002,  0.
 0.005, 0.3
** 
** INTERACTION PROPERTIES
** 
*Surface Interaction, name=NoFric
1.,
*Friction
0.,
** 
** BOUNDARY CONDITIONS
** 
** Name: Fixed Type: Displacement/Rotation
*Boundary
Set-4, 1, 1
Set-4, 2, 2
Set-4, 3, 3
Set-4, 4, 4
Set-4, 5, 5
Set-4, 6, 6
** Name: NoSlip Type: Displacement/Rotation
*Boundary
Set-5, 3, 3
Set-5, 4, 4
Set-5, 5, 5
Set-5, 6, 6
** Name: NoSlip2 Type: Displacement/Rotation
*Boundary
Set-6, 3, 3
Set-6, 4, 4
Set-6, 5, 5
Set-6, 6, 6
** 
** INTERACTIONS
** 
** Interaction: px-sx
*Contact Pair, interaction=NoFric, type=SURFACE TO SURFACE
Surf-px, Surf-sx
** ----------------------------------------------------------------
** 
** STEP: Contact
** 
*Step, name=Contact, nlgeom=YES, inc=10000
Establish contact
*Static
0.01, 10., 0.0001, 1.
** 
** BOUNDARY CONDITIONS
** 
** Name: Fixed Type: Displacement/Rotation
*Boundary, op=NEW
Set-4, 1, 1
Set-4, 2, 2
Set-4, 3, 3
Set-4, 4, 4
Set-4, 5, 5
Set-4, 6, 6
** Name: NoSlip Type: Displacement/Rotation
*Boundary, op=NEW
Set-5, 4, 4
Set-5, 5, 5
Set-5, 6, 6
** Name: NoSlip2 Type: Displacement/Rotation
*Boundary, op=NEW
Set-6, 4, 4
Set-6, 5, 5
Set-6, 6, 6
** Name: oben Type: Displacement/Rotation
*Boundary, op=NEW
Set-3, 1, 1
Set-3, 2, 2
Set-3, 3, 3, -7.5
Set-3, 4, 4
Set-3, 5, 5
Set-3, 6, 6
** 
** OUTPUT REQUESTS
** 
*Restart, write, frequency=0
*Print, solve=NO
** 
** FIELD OUTPUT: F-Output-1
** 
*Output, field
*Node Output
CF, COORD, RF, U
*Element Output, directions=YES
EEQUT, LE, MVF, PE, PEEQ, PEMAG, S, SEQUT, TE, TEEQ, TEVOL
*Contact Output
CDISP, CSTRESS
** 
** HISTORY OUTPUT: H-Output-1
** 
*Output, history, variable=PRESELECT
*End Step
** ----------------------------------------------------------------
** 
** STEP: Displace
** 
*Step, name=Displace, nlgeom=YES, inc=10000
Deformation
*Static
0.01, 10., 0.0001, 1.
** 
** OUTPUT REQUESTS
** 
*Restart, write, frequency=0
*Print, solve=YES
** 
** FIELD OUTPUT: F-Output-1
** 
*Output, field
*Node Output
CF, COORD, RF, U
*Element Output, directions=YES
EEQUT, LE, MVF, PE, PEEQ, PEMAG, S, SEQUT, TE, TEEQ, TEVOL
*Contact Output
CDISP, CSTRESS
** 
** FIELD OUTPUT: F-Output-2
** 
*Node Output
U, 
*Element Output, directions=YES
E, EE, IE
** 
** HISTORY OUTPUT: H-Output-1
** 
*Output, history, variable=PRESELECT
*End Step
